
---------- Begin Simulation Statistics ----------
sim_seconds                                  0.087161                       # Number of seconds simulated
sim_ticks                                 87161231000                       # Number of ticks simulated
final_tick                                87161231000                       # Number of ticks from beginning of simulation (restored from checkpoints and never reset)
sim_freq                                 1000000000000                       # Frequency of simulated ticks
host_inst_rate                                 340617                       # Simulator instruction rate (inst/s)
host_op_rate                                   561960                       # Simulator op (including micro ops) rate (op/s)
host_tick_rate                              663171246                       # Simulator tick rate (ticks/s)
host_mem_usage                                 679364                       # Number of bytes of host memory used
host_seconds                                   131.43                       # Real time elapsed on the host
sim_insts                                    44767607                       # Number of instructions simulated
sim_ops                                      73858908                       # Number of ops (including micro ops) simulated
system.voltage_domain.voltage                       1                       # Voltage in Volts
system.clk_domain.clock                          1000                       # Clock period in ticks
system.mem_ctrls.pwrStateResidencyTicks::UNDEFINED  87161231000                       # Cumulative time (in ticks) in various power states
system.mem_ctrls.bytes_read::cpu.inst           46976                       # Number of bytes read from this memory
system.mem_ctrls.bytes_read::cpu.data          497856                       # Number of bytes read from this memory
system.mem_ctrls.bytes_read::total             544832                       # Number of bytes read from this memory
system.mem_ctrls.bytes_inst_read::cpu.inst        46976                       # Number of instructions bytes read from this memory
system.mem_ctrls.bytes_inst_read::total         46976                       # Number of instructions bytes read from this memory
system.mem_ctrls.num_reads::cpu.inst              734                       # Number of read requests responded to by this memory
system.mem_ctrls.num_reads::cpu.data             7779                       # Number of read requests responded to by this memory
system.mem_ctrls.num_reads::total                8513                       # Number of read requests responded to by this memory
system.mem_ctrls.bw_read::cpu.inst             538955                       # Total read bandwidth from this memory (bytes/s)
system.mem_ctrls.bw_read::cpu.data            5711897                       # Total read bandwidth from this memory (bytes/s)
system.mem_ctrls.bw_read::total               6250853                       # Total read bandwidth from this memory (bytes/s)
system.mem_ctrls.bw_inst_read::cpu.inst        538955                       # Instruction read bandwidth from this memory (bytes/s)
system.mem_ctrls.bw_inst_read::total           538955                       # Instruction read bandwidth from this memory (bytes/s)
system.mem_ctrls.bw_total::cpu.inst            538955                       # Total bandwidth to/from this memory (bytes/s)
system.mem_ctrls.bw_total::cpu.data           5711897                       # Total bandwidth to/from this memory (bytes/s)
system.mem_ctrls.bw_total::total              6250853                       # Total bandwidth to/from this memory (bytes/s)
system.pwrStateResidencyTicks::UNDEFINED  87161231000                       # Cumulative time (in ticks) in various power states
system.cpu_voltage_domain.voltage                   1                       # Voltage in Volts
system.cpu_clk_domain.clock                       500                       # Clock period in ticks
system.cpu.dtb.walker.pwrStateResidencyTicks::UNDEFINED  87161231000                       # Cumulative time (in ticks) in various power states
system.cpu.dtb.rdAccesses                    20998408                       # TLB accesses on read requests
system.cpu.dtb.wrAccesses                     5824776                       # TLB accesses on write requests
system.cpu.dtb.rdMisses                           231                       # TLB misses on read requests
system.cpu.dtb.wrMisses                           111                       # TLB misses on write requests
system.cpu.apic_clk_domain.clock                 8000                       # Clock period in ticks
system.cpu.interrupts.pwrStateResidencyTicks::UNDEFINED  87161231000                       # Cumulative time (in ticks) in various power states
system.cpu.itb.walker.pwrStateResidencyTicks::UNDEFINED  87161231000                       # Cumulative time (in ticks) in various power states
system.cpu.itb.rdAccesses                           0                       # TLB accesses on read requests
system.cpu.itb.wrAccesses                    59428530                       # TLB accesses on write requests
system.cpu.itb.rdMisses                             0                       # TLB misses on read requests
system.cpu.itb.wrMisses                            78                       # TLB misses on write requests
system.cpu.workload.numSyscalls                    25                       # Number of system calls
system.cpu.pwrStateResidencyTicks::ON     87161231000                       # Cumulative time (in ticks) in various power states
system.cpu.numCycles                        174322462                       # number of cpu cycles simulated
system.cpu.numWorkItemsStarted                      0                       # number of work items this cpu started
system.cpu.numWorkItemsCompleted                    0                       # number of work items this cpu completed
system.cpu.committedInsts                    44767607                       # Number of instructions committed
system.cpu.committedOps                      73858908                       # Number of ops (including micro ops) committed
system.cpu.num_int_alu_accesses              73334925                       # Number of integer alu accesses
system.cpu.num_fp_alu_accesses                   4324                       # Number of float alu accesses
system.cpu.num_vec_alu_accesses                     0                       # Number of vector alu accesses
system.cpu.num_func_calls                      945812                       # number of times a function call or return occured
system.cpu.num_conditional_control_insts      4246113                       # number of instructions that are conditional controls
system.cpu.num_int_insts                     73334925                       # number of integer instructions
system.cpu.num_fp_insts                          4324                       # number of float instructions
system.cpu.num_vec_insts                            0                       # number of vector instructions
system.cpu.num_int_register_reads           164564264                       # number of times the integer registers were read
system.cpu.num_int_register_writes           64004152                       # number of times the integer registers were written
system.cpu.num_fp_register_reads                 6422                       # number of times the floating registers were read
system.cpu.num_fp_register_writes                3209                       # number of times the floating registers were written
system.cpu.num_vec_register_reads                   0                       # number of times the vector registers were read
system.cpu.num_vec_register_writes                  0                       # number of times the vector registers were written
system.cpu.num_cc_register_reads             27729338                       # number of times the CC registers were read
system.cpu.num_cc_register_writes            24993571                       # number of times the CC registers were written
system.cpu.num_mem_refs                      26823176                       # number of memory refs
system.cpu.num_load_insts                    20998400                       # Number of load instructions
system.cpu.num_store_insts                    5824776                       # Number of store instructions
system.cpu.num_idle_cycles                          0                       # Number of idle cycles
system.cpu.num_busy_cycles                  174322462                       # Number of busy cycles
system.cpu.not_idle_fraction                        1                       # Percentage of non-idle cycles
system.cpu.idle_fraction                            0                       # Percentage of idle cycles
system.cpu.Branches                           5689970                       # Number of branches fetched
system.cpu.op_class::No_OpClass                177072      0.24%      0.24% # Class of executed instruction
system.cpu.op_class::IntAlu                  45851849     62.08%     62.32% # Class of executed instruction
system.cpu.op_class::IntMult                       15      0.00%     62.32% # Class of executed instruction
system.cpu.op_class::IntDiv                   1004199      1.36%     63.68% # Class of executed instruction
system.cpu.op_class::FloatAdd                     132      0.00%     63.68% # Class of executed instruction
system.cpu.op_class::FloatCmp                       0      0.00%     63.68% # Class of executed instruction
system.cpu.op_class::FloatCvt                       0      0.00%     63.68% # Class of executed instruction
system.cpu.op_class::FloatMult                      0      0.00%     63.68% # Class of executed instruction
system.cpu.op_class::FloatMultAcc                   0      0.00%     63.68% # Class of executed instruction
system.cpu.op_class::FloatDiv                       0      0.00%     63.68% # Class of executed instruction
system.cpu.op_class::FloatMisc                      0      0.00%     63.68% # Class of executed instruction
system.cpu.op_class::FloatSqrt                      0      0.00%     63.68% # Class of executed instruction
system.cpu.op_class::SimdAdd                      348      0.00%     63.68% # Class of executed instruction
system.cpu.op_class::SimdAddAcc                     0      0.00%     63.68% # Class of executed instruction
system.cpu.op_class::SimdAlu                      682      0.00%     63.68% # Class of executed instruction
system.cpu.op_class::SimdCmp                        0      0.00%     63.68% # Class of executed instruction
system.cpu.op_class::SimdCvt                      776      0.00%     63.68% # Class of executed instruction
system.cpu.op_class::SimdMisc                     530      0.00%     63.68% # Class of executed instruction
system.cpu.op_class::SimdMult                       0      0.00%     63.68% # Class of executed instruction
system.cpu.op_class::SimdMultAcc                    0      0.00%     63.68% # Class of executed instruction
system.cpu.op_class::SimdShift                    129      0.00%     63.68% # Class of executed instruction
system.cpu.op_class::SimdShiftAcc                   0      0.00%     63.68% # Class of executed instruction
system.cpu.op_class::SimdSqrt                       0      0.00%     63.68% # Class of executed instruction
system.cpu.op_class::SimdFloatAdd                   0      0.00%     63.68% # Class of executed instruction
system.cpu.op_class::SimdFloatAlu                   0      0.00%     63.68% # Class of executed instruction
system.cpu.op_class::SimdFloatCmp                   0      0.00%     63.68% # Class of executed instruction
system.cpu.op_class::SimdFloatCvt                   0      0.00%     63.68% # Class of executed instruction
system.cpu.op_class::SimdFloatDiv                   0      0.00%     63.68% # Class of executed instruction
system.cpu.op_class::SimdFloatMisc                  0      0.00%     63.68% # Class of executed instruction
system.cpu.op_class::SimdFloatMult                  0      0.00%     63.68% # Class of executed instruction
system.cpu.op_class::SimdFloatMultAcc               0      0.00%     63.68% # Class of executed instruction
system.cpu.op_class::SimdFloatSqrt                  0      0.00%     63.68% # Class of executed instruction
system.cpu.op_class::MemRead                 20997422     28.43%     92.11% # Class of executed instruction
system.cpu.op_class::MemWrite                 5824086      7.89%    100.00% # Class of executed instruction
system.cpu.op_class::FloatMemRead                 978      0.00%    100.00% # Class of executed instruction
system.cpu.op_class::FloatMemWrite                690      0.00%    100.00% # Class of executed instruction
system.cpu.op_class::IprAccess                      0      0.00%    100.00% # Class of executed instruction
system.cpu.op_class::InstPrefetch                   0      0.00%    100.00% # Class of executed instruction
system.cpu.op_class::total                   73858908                       # Class of executed instruction
system.cpu.dcache.tags.pwrStateResidencyTicks::UNDEFINED  87161231000                       # Cumulative time (in ticks) in various power states
system.cpu.dcache.tags.tagsinuse           511.404677                       # Cycle average of tags in use
system.cpu.dcache.tags.total_refs            26823184                       # Total number of references to valid blocks.
system.cpu.dcache.tags.sampled_refs             47013                       # Sample count of references to valid blocks.
system.cpu.dcache.tags.avg_refs            570.548231                       # Average number of references to valid blocks.
system.cpu.dcache.tags.warmup_cycle            760000                       # Cycle when the warmup percentage was hit.
system.cpu.dcache.tags.occ_blocks::cpu.data   511.404677                       # Average occupied blocks per requestor
system.cpu.dcache.tags.occ_percent::cpu.data     0.998837                       # Average percentage of cache occupancy
system.cpu.dcache.tags.occ_percent::total     0.998837                       # Average percentage of cache occupancy
system.cpu.dcache.tags.occ_task_id_blocks::1024          512                       # Occupied blocks per task id
system.cpu.dcache.tags.age_task_id_blocks_1024::0           56                       # Occupied blocks per task id
system.cpu.dcache.tags.age_task_id_blocks_1024::2           33                       # Occupied blocks per task id
system.cpu.dcache.tags.age_task_id_blocks_1024::3          421                       # Occupied blocks per task id
system.cpu.dcache.tags.age_task_id_blocks_1024::4            2                       # Occupied blocks per task id
system.cpu.dcache.tags.occ_task_id_percent::1024            1                       # Percentage of cache occupancy per task id
system.cpu.dcache.tags.tag_accesses          53693381                       # Number of tag accesses
system.cpu.dcache.tags.data_accesses         53693381                       # Number of data accesses
system.cpu.dcache.pwrStateResidencyTicks::UNDEFINED  87161231000                       # Cumulative time (in ticks) in various power states
system.cpu.dcache.ReadReq_hits::cpu.data     20958483                       # number of ReadReq hits
system.cpu.dcache.ReadReq_hits::total        20958483                       # number of ReadReq hits
system.cpu.dcache.WriteReq_hits::cpu.data      5817688                       # number of WriteReq hits
system.cpu.dcache.WriteReq_hits::total        5817688                       # number of WriteReq hits
system.cpu.dcache.demand_hits::cpu.data      26776171                       # number of demand (read+write) hits
system.cpu.dcache.demand_hits::total         26776171                       # number of demand (read+write) hits
system.cpu.dcache.overall_hits::cpu.data     26776171                       # number of overall hits
system.cpu.dcache.overall_hits::total        26776171                       # number of overall hits
system.cpu.dcache.ReadReq_misses::cpu.data        39925                       # number of ReadReq misses
system.cpu.dcache.ReadReq_misses::total         39925                       # number of ReadReq misses
system.cpu.dcache.WriteReq_misses::cpu.data         7088                       # number of WriteReq misses
system.cpu.dcache.WriteReq_misses::total         7088                       # number of WriteReq misses
system.cpu.dcache.demand_misses::cpu.data        47013                       # number of demand (read+write) misses
system.cpu.dcache.demand_misses::total          47013                       # number of demand (read+write) misses
system.cpu.dcache.overall_misses::cpu.data        47013                       # number of overall misses
system.cpu.dcache.overall_misses::total         47013                       # number of overall misses
system.cpu.dcache.ReadReq_miss_latency::cpu.data    487335000                       # number of ReadReq miss cycles
system.cpu.dcache.ReadReq_miss_latency::total    487335000                       # number of ReadReq miss cycles
system.cpu.dcache.WriteReq_miss_latency::cpu.data    364101500                       # number of WriteReq miss cycles
system.cpu.dcache.WriteReq_miss_latency::total    364101500                       # number of WriteReq miss cycles
system.cpu.dcache.demand_miss_latency::cpu.data    851436500                       # number of demand (read+write) miss cycles
system.cpu.dcache.demand_miss_latency::total    851436500                       # number of demand (read+write) miss cycles
system.cpu.dcache.overall_miss_latency::cpu.data    851436500                       # number of overall miss cycles
system.cpu.dcache.overall_miss_latency::total    851436500                       # number of overall miss cycles
system.cpu.dcache.ReadReq_accesses::cpu.data     20998408                       # number of ReadReq accesses(hits+misses)
system.cpu.dcache.ReadReq_accesses::total     20998408                       # number of ReadReq accesses(hits+misses)
system.cpu.dcache.WriteReq_accesses::cpu.data      5824776                       # number of WriteReq accesses(hits+misses)
system.cpu.dcache.WriteReq_accesses::total      5824776                       # number of WriteReq accesses(hits+misses)
system.cpu.dcache.demand_accesses::cpu.data     26823184                       # number of demand (read+write) accesses
system.cpu.dcache.demand_accesses::total     26823184                       # number of demand (read+write) accesses
system.cpu.dcache.overall_accesses::cpu.data     26823184                       # number of overall (read+write) accesses
system.cpu.dcache.overall_accesses::total     26823184                       # number of overall (read+write) accesses
system.cpu.dcache.ReadReq_miss_rate::cpu.data     0.001901                       # miss rate for ReadReq accesses
system.cpu.dcache.ReadReq_miss_rate::total     0.001901                       # miss rate for ReadReq accesses
system.cpu.dcache.WriteReq_miss_rate::cpu.data     0.001217                       # miss rate for WriteReq accesses
system.cpu.dcache.WriteReq_miss_rate::total     0.001217                       # miss rate for WriteReq accesses
system.cpu.dcache.demand_miss_rate::cpu.data     0.001753                       # miss rate for demand accesses
system.cpu.dcache.demand_miss_rate::total     0.001753                       # miss rate for demand accesses
system.cpu.dcache.overall_miss_rate::cpu.data     0.001753                       # miss rate for overall accesses
system.cpu.dcache.overall_miss_rate::total     0.001753                       # miss rate for overall accesses
system.cpu.dcache.ReadReq_avg_miss_latency::cpu.data 12206.261741                       # average ReadReq miss latency
system.cpu.dcache.ReadReq_avg_miss_latency::total 12206.261741                       # average ReadReq miss latency
system.cpu.dcache.WriteReq_avg_miss_latency::cpu.data 51368.721783                       # average WriteReq miss latency
system.cpu.dcache.WriteReq_avg_miss_latency::total 51368.721783                       # average WriteReq miss latency
system.cpu.dcache.demand_avg_miss_latency::cpu.data 18110.660881                       # average overall miss latency
system.cpu.dcache.demand_avg_miss_latency::total 18110.660881                       # average overall miss latency
system.cpu.dcache.overall_avg_miss_latency::cpu.data 18110.660881                       # average overall miss latency
system.cpu.dcache.overall_avg_miss_latency::total 18110.660881                       # average overall miss latency
system.cpu.dcache.blocked_cycles::no_mshrs            0                       # number of cycles access was blocked
system.cpu.dcache.blocked_cycles::no_targets            0                       # number of cycles access was blocked
system.cpu.dcache.blocked::no_mshrs                 0                       # number of cycles access was blocked
system.cpu.dcache.blocked::no_targets               0                       # number of cycles access was blocked
system.cpu.dcache.avg_blocked_cycles::no_mshrs          nan                       # average number of cycles each access was blocked
system.cpu.dcache.avg_blocked_cycles::no_targets          nan                       # average number of cycles each access was blocked
system.cpu.dcache.writebacks::writebacks        45379                       # number of writebacks
system.cpu.dcache.writebacks::total             45379                       # number of writebacks
system.cpu.dcache.ReadReq_mshr_misses::cpu.data        39925                       # number of ReadReq MSHR misses
system.cpu.dcache.ReadReq_mshr_misses::total        39925                       # number of ReadReq MSHR misses
system.cpu.dcache.WriteReq_mshr_misses::cpu.data         7088                       # number of WriteReq MSHR misses
system.cpu.dcache.WriteReq_mshr_misses::total         7088                       # number of WriteReq MSHR misses
system.cpu.dcache.demand_mshr_misses::cpu.data        47013                       # number of demand (read+write) MSHR misses
system.cpu.dcache.demand_mshr_misses::total        47013                       # number of demand (read+write) MSHR misses
system.cpu.dcache.overall_mshr_misses::cpu.data        47013                       # number of overall MSHR misses
system.cpu.dcache.overall_mshr_misses::total        47013                       # number of overall MSHR misses
system.cpu.dcache.ReadReq_mshr_miss_latency::cpu.data    447410000                       # number of ReadReq MSHR miss cycles
system.cpu.dcache.ReadReq_mshr_miss_latency::total    447410000                       # number of ReadReq MSHR miss cycles
system.cpu.dcache.WriteReq_mshr_miss_latency::cpu.data    357013500                       # number of WriteReq MSHR miss cycles
system.cpu.dcache.WriteReq_mshr_miss_latency::total    357013500                       # number of WriteReq MSHR miss cycles
system.cpu.dcache.demand_mshr_miss_latency::cpu.data    804423500                       # number of demand (read+write) MSHR miss cycles
system.cpu.dcache.demand_mshr_miss_latency::total    804423500                       # number of demand (read+write) MSHR miss cycles
system.cpu.dcache.overall_mshr_miss_latency::cpu.data    804423500                       # number of overall MSHR miss cycles
system.cpu.dcache.overall_mshr_miss_latency::total    804423500                       # number of overall MSHR miss cycles
system.cpu.dcache.ReadReq_mshr_miss_rate::cpu.data     0.001901                       # mshr miss rate for ReadReq accesses
system.cpu.dcache.ReadReq_mshr_miss_rate::total     0.001901                       # mshr miss rate for ReadReq accesses
system.cpu.dcache.WriteReq_mshr_miss_rate::cpu.data     0.001217                       # mshr miss rate for WriteReq accesses
system.cpu.dcache.WriteReq_mshr_miss_rate::total     0.001217                       # mshr miss rate for WriteReq accesses
system.cpu.dcache.demand_mshr_miss_rate::cpu.data     0.001753                       # mshr miss rate for demand accesses
system.cpu.dcache.demand_mshr_miss_rate::total     0.001753                       # mshr miss rate for demand accesses
system.cpu.dcache.overall_mshr_miss_rate::cpu.data     0.001753                       # mshr miss rate for overall accesses
system.cpu.dcache.overall_mshr_miss_rate::total     0.001753                       # mshr miss rate for overall accesses
system.cpu.dcache.ReadReq_avg_mshr_miss_latency::cpu.data 11206.261741                       # average ReadReq mshr miss latency
system.cpu.dcache.ReadReq_avg_mshr_miss_latency::total 11206.261741                       # average ReadReq mshr miss latency
system.cpu.dcache.WriteReq_avg_mshr_miss_latency::cpu.data 50368.721783                       # average WriteReq mshr miss latency
system.cpu.dcache.WriteReq_avg_mshr_miss_latency::total 50368.721783                       # average WriteReq mshr miss latency
system.cpu.dcache.demand_avg_mshr_miss_latency::cpu.data 17110.660881                       # average overall mshr miss latency
system.cpu.dcache.demand_avg_mshr_miss_latency::total 17110.660881                       # average overall mshr miss latency
system.cpu.dcache.overall_avg_mshr_miss_latency::cpu.data 17110.660881                       # average overall mshr miss latency
system.cpu.dcache.overall_avg_mshr_miss_latency::total 17110.660881                       # average overall mshr miss latency
system.cpu.dcache.replacements                  46501                       # number of replacements
system.cpu.dtb_walker_cache.tags.pwrStateResidencyTicks::UNDEFINED  87161231000                       # Cumulative time (in ticks) in various power states
system.cpu.dtb_walker_cache.tags.tagsinuse            0                       # Cycle average of tags in use
system.cpu.dtb_walker_cache.tags.total_refs            0                       # Total number of references to valid blocks.
system.cpu.dtb_walker_cache.tags.sampled_refs            0                       # Sample count of references to valid blocks.
system.cpu.dtb_walker_cache.tags.avg_refs          nan                       # Average number of references to valid blocks.
system.cpu.dtb_walker_cache.tags.warmup_cycle            0                       # Cycle when the warmup percentage was hit.
system.cpu.dtb_walker_cache.tags.tag_accesses            0                       # Number of tag accesses
system.cpu.dtb_walker_cache.tags.data_accesses            0                       # Number of data accesses
system.cpu.dtb_walker_cache.pwrStateResidencyTicks::UNDEFINED  87161231000                       # Cumulative time (in ticks) in various power states
system.cpu.dtb_walker_cache.blocked_cycles::no_mshrs            0                       # number of cycles access was blocked
system.cpu.dtb_walker_cache.blocked_cycles::no_targets            0                       # number of cycles access was blocked
system.cpu.dtb_walker_cache.blocked::no_mshrs            0                       # number of cycles access was blocked
system.cpu.dtb_walker_cache.blocked::no_targets            0                       # number of cycles access was blocked
system.cpu.dtb_walker_cache.avg_blocked_cycles::no_mshrs          nan                       # average number of cycles each access was blocked
system.cpu.dtb_walker_cache.avg_blocked_cycles::no_targets          nan                       # average number of cycles each access was blocked
system.cpu.dtb_walker_cache.replacements            0                       # number of replacements
system.cpu.icache.tags.pwrStateResidencyTicks::UNDEFINED  87161231000                       # Cumulative time (in ticks) in various power states
system.cpu.icache.tags.tagsinuse           439.177810                       # Cycle average of tags in use
system.cpu.icache.tags.total_refs            59428530                       # Total number of references to valid blocks.
system.cpu.icache.tags.sampled_refs               755                       # Sample count of references to valid blocks.
system.cpu.icache.tags.avg_refs          78713.284768                       # Average number of references to valid blocks.
system.cpu.icache.tags.warmup_cycle            440000                       # Cycle when the warmup percentage was hit.
system.cpu.icache.tags.occ_blocks::cpu.inst   439.177810                       # Average occupied blocks per requestor
system.cpu.icache.tags.occ_percent::cpu.inst     0.857769                       # Average percentage of cache occupancy
system.cpu.icache.tags.occ_percent::total     0.857769                       # Average percentage of cache occupancy
system.cpu.icache.tags.occ_task_id_blocks::1024          450                       # Occupied blocks per task id
system.cpu.icache.tags.age_task_id_blocks_1024::0           60                       # Occupied blocks per task id
system.cpu.icache.tags.age_task_id_blocks_1024::4          390                       # Occupied blocks per task id
system.cpu.icache.tags.occ_task_id_percent::1024     0.878906                       # Percentage of cache occupancy per task id
system.cpu.icache.tags.tag_accesses         118857815                       # Number of tag accesses
system.cpu.icache.tags.data_accesses        118857815                       # Number of data accesses
system.cpu.icache.pwrStateResidencyTicks::UNDEFINED  87161231000                       # Cumulative time (in ticks) in various power states
system.cpu.icache.ReadReq_hits::cpu.inst     59427775                       # number of ReadReq hits
system.cpu.icache.ReadReq_hits::total        59427775                       # number of ReadReq hits
system.cpu.icache.demand_hits::cpu.inst      59427775                       # number of demand (read+write) hits
system.cpu.icache.demand_hits::total         59427775                       # number of demand (read+write) hits
system.cpu.icache.overall_hits::cpu.inst     59427775                       # number of overall hits
system.cpu.icache.overall_hits::total        59427775                       # number of overall hits
system.cpu.icache.ReadReq_misses::cpu.inst          755                       # number of ReadReq misses
system.cpu.icache.ReadReq_misses::total           755                       # number of ReadReq misses
system.cpu.icache.demand_misses::cpu.inst          755                       # number of demand (read+write) misses
system.cpu.icache.demand_misses::total            755                       # number of demand (read+write) misses
system.cpu.icache.overall_misses::cpu.inst          755                       # number of overall misses
system.cpu.icache.overall_misses::total           755                       # number of overall misses
system.cpu.icache.ReadReq_miss_latency::cpu.inst    106167500                       # number of ReadReq miss cycles
system.cpu.icache.ReadReq_miss_latency::total    106167500                       # number of ReadReq miss cycles
system.cpu.icache.demand_miss_latency::cpu.inst    106167500                       # number of demand (read+write) miss cycles
system.cpu.icache.demand_miss_latency::total    106167500                       # number of demand (read+write) miss cycles
system.cpu.icache.overall_miss_latency::cpu.inst    106167500                       # number of overall miss cycles
system.cpu.icache.overall_miss_latency::total    106167500                       # number of overall miss cycles
system.cpu.icache.ReadReq_accesses::cpu.inst     59428530                       # number of ReadReq accesses(hits+misses)
system.cpu.icache.ReadReq_accesses::total     59428530                       # number of ReadReq accesses(hits+misses)
system.cpu.icache.demand_accesses::cpu.inst     59428530                       # number of demand (read+write) accesses
system.cpu.icache.demand_accesses::total     59428530                       # number of demand (read+write) accesses
system.cpu.icache.overall_accesses::cpu.inst     59428530                       # number of overall (read+write) accesses
system.cpu.icache.overall_accesses::total     59428530                       # number of overall (read+write) accesses
system.cpu.icache.ReadReq_miss_rate::cpu.inst     0.000013                       # miss rate for ReadReq accesses
system.cpu.icache.ReadReq_miss_rate::total     0.000013                       # miss rate for ReadReq accesses
system.cpu.icache.demand_miss_rate::cpu.inst     0.000013                       # miss rate for demand accesses
system.cpu.icache.demand_miss_rate::total     0.000013                       # miss rate for demand accesses
system.cpu.icache.overall_miss_rate::cpu.inst     0.000013                       # miss rate for overall accesses
system.cpu.icache.overall_miss_rate::total     0.000013                       # miss rate for overall accesses
system.cpu.icache.ReadReq_avg_miss_latency::cpu.inst 140619.205298                       # average ReadReq miss latency
system.cpu.icache.ReadReq_avg_miss_latency::total 140619.205298                       # average ReadReq miss latency
system.cpu.icache.demand_avg_miss_latency::cpu.inst 140619.205298                       # average overall miss latency
system.cpu.icache.demand_avg_miss_latency::total 140619.205298                       # average overall miss latency
system.cpu.icache.overall_avg_miss_latency::cpu.inst 140619.205298                       # average overall miss latency
system.cpu.icache.overall_avg_miss_latency::total 140619.205298                       # average overall miss latency
system.cpu.icache.blocked_cycles::no_mshrs            0                       # number of cycles access was blocked
system.cpu.icache.blocked_cycles::no_targets            0                       # number of cycles access was blocked
system.cpu.icache.blocked::no_mshrs                 0                       # number of cycles access was blocked
system.cpu.icache.blocked::no_targets               0                       # number of cycles access was blocked
system.cpu.icache.avg_blocked_cycles::no_mshrs          nan                       # average number of cycles each access was blocked
system.cpu.icache.avg_blocked_cycles::no_targets          nan                       # average number of cycles each access was blocked
system.cpu.icache.writebacks::writebacks          305                       # number of writebacks
system.cpu.icache.writebacks::total               305                       # number of writebacks
system.cpu.icache.ReadReq_mshr_misses::cpu.inst          755                       # number of ReadReq MSHR misses
system.cpu.icache.ReadReq_mshr_misses::total          755                       # number of ReadReq MSHR misses
system.cpu.icache.demand_mshr_misses::cpu.inst          755                       # number of demand (read+write) MSHR misses
system.cpu.icache.demand_mshr_misses::total          755                       # number of demand (read+write) MSHR misses
system.cpu.icache.overall_mshr_misses::cpu.inst          755                       # number of overall MSHR misses
system.cpu.icache.overall_mshr_misses::total          755                       # number of overall MSHR misses
system.cpu.icache.ReadReq_mshr_miss_latency::cpu.inst    105412500                       # number of ReadReq MSHR miss cycles
system.cpu.icache.ReadReq_mshr_miss_latency::total    105412500                       # number of ReadReq MSHR miss cycles
system.cpu.icache.demand_mshr_miss_latency::cpu.inst    105412500                       # number of demand (read+write) MSHR miss cycles
system.cpu.icache.demand_mshr_miss_latency::total    105412500                       # number of demand (read+write) MSHR miss cycles
system.cpu.icache.overall_mshr_miss_latency::cpu.inst    105412500                       # number of overall MSHR miss cycles
system.cpu.icache.overall_mshr_miss_latency::total    105412500                       # number of overall MSHR miss cycles
system.cpu.icache.ReadReq_mshr_miss_rate::cpu.inst     0.000013                       # mshr miss rate for ReadReq accesses
system.cpu.icache.ReadReq_mshr_miss_rate::total     0.000013                       # mshr miss rate for ReadReq accesses
system.cpu.icache.demand_mshr_miss_rate::cpu.inst     0.000013                       # mshr miss rate for demand accesses
system.cpu.icache.demand_mshr_miss_rate::total     0.000013                       # mshr miss rate for demand accesses
system.cpu.icache.overall_mshr_miss_rate::cpu.inst     0.000013                       # mshr miss rate for overall accesses
system.cpu.icache.overall_mshr_miss_rate::total     0.000013                       # mshr miss rate for overall accesses
system.cpu.icache.ReadReq_avg_mshr_miss_latency::cpu.inst 139619.205298                       # average ReadReq mshr miss latency
system.cpu.icache.ReadReq_avg_mshr_miss_latency::total 139619.205298                       # average ReadReq mshr miss latency
system.cpu.icache.demand_avg_mshr_miss_latency::cpu.inst 139619.205298                       # average overall mshr miss latency
system.cpu.icache.demand_avg_mshr_miss_latency::total 139619.205298                       # average overall mshr miss latency
system.cpu.icache.overall_avg_mshr_miss_latency::cpu.inst 139619.205298                       # average overall mshr miss latency
system.cpu.icache.overall_avg_mshr_miss_latency::total 139619.205298                       # average overall mshr miss latency
system.cpu.icache.replacements                    305                       # number of replacements
system.cpu.itb_walker_cache.tags.pwrStateResidencyTicks::UNDEFINED  87161231000                       # Cumulative time (in ticks) in various power states
system.cpu.itb_walker_cache.tags.tagsinuse            0                       # Cycle average of tags in use
system.cpu.itb_walker_cache.tags.total_refs            0                       # Total number of references to valid blocks.
system.cpu.itb_walker_cache.tags.sampled_refs            0                       # Sample count of references to valid blocks.
system.cpu.itb_walker_cache.tags.avg_refs          nan                       # Average number of references to valid blocks.
system.cpu.itb_walker_cache.tags.warmup_cycle            0                       # Cycle when the warmup percentage was hit.
system.cpu.itb_walker_cache.tags.tag_accesses            0                       # Number of tag accesses
system.cpu.itb_walker_cache.tags.data_accesses            0                       # Number of data accesses
system.cpu.itb_walker_cache.pwrStateResidencyTicks::UNDEFINED  87161231000                       # Cumulative time (in ticks) in various power states
system.cpu.itb_walker_cache.blocked_cycles::no_mshrs            0                       # number of cycles access was blocked
system.cpu.itb_walker_cache.blocked_cycles::no_targets            0                       # number of cycles access was blocked
system.cpu.itb_walker_cache.blocked::no_mshrs            0                       # number of cycles access was blocked
system.cpu.itb_walker_cache.blocked::no_targets            0                       # number of cycles access was blocked
system.cpu.itb_walker_cache.avg_blocked_cycles::no_mshrs          nan                       # average number of cycles each access was blocked
system.cpu.itb_walker_cache.avg_blocked_cycles::no_targets          nan                       # average number of cycles each access was blocked
system.cpu.itb_walker_cache.replacements            0                       # number of replacements
system.l2.tags.pwrStateResidencyTicks::UNDEFINED  87161231000                       # Cumulative time (in ticks) in various power states
system.l2.tags.tagsinuse                  7469.569668                       # Cycle average of tags in use
system.l2.tags.total_refs                       94573                       # Total number of references to valid blocks.
system.l2.tags.sampled_refs                      8574                       # Sample count of references to valid blocks.
system.l2.tags.avg_refs                     11.030208                       # Average number of references to valid blocks.
system.l2.tags.warmup_cycle                    433500                       # Cycle when the warmup percentage was hit.
system.l2.tags.occ_blocks::writebacks        1.701907                       # Average occupied blocks per requestor
system.l2.tags.occ_blocks::cpu.inst        399.959415                       # Average occupied blocks per requestor
system.l2.tags.occ_blocks::cpu.data       7067.908346                       # Average occupied blocks per requestor
system.l2.tags.occ_percent::writebacks       0.000208                       # Average percentage of cache occupancy
system.l2.tags.occ_percent::cpu.inst         0.048823                       # Average percentage of cache occupancy
system.l2.tags.occ_percent::cpu.data         0.862782                       # Average percentage of cache occupancy
system.l2.tags.occ_percent::total            0.911813                       # Average percentage of cache occupancy
system.l2.tags.occ_task_id_blocks::1024          7889                       # Occupied blocks per task id
system.l2.tags.age_task_id_blocks_1024::0          108                       # Occupied blocks per task id
system.l2.tags.age_task_id_blocks_1024::3            2                       # Occupied blocks per task id
system.l2.tags.age_task_id_blocks_1024::4         7779                       # Occupied blocks per task id
system.l2.tags.occ_task_id_percent::1024     0.963013                       # Percentage of cache occupancy per task id
system.l2.tags.tag_accesses                    765158                       # Number of tag accesses
system.l2.tags.data_accesses                   765158                       # Number of data accesses
system.l2.pwrStateResidencyTicks::UNDEFINED  87161231000                       # Cumulative time (in ticks) in various power states
system.l2.WritebackDirty_hits::writebacks        45379                       # number of WritebackDirty hits
system.l2.WritebackDirty_hits::total            45379                       # number of WritebackDirty hits
system.l2.WritebackClean_hits::writebacks          305                       # number of WritebackClean hits
system.l2.WritebackClean_hits::total              305                       # number of WritebackClean hits
system.l2.ReadExReq_hits::cpu.data                365                       # number of ReadExReq hits
system.l2.ReadExReq_hits::total                   365                       # number of ReadExReq hits
system.l2.ReadCleanReq_hits::cpu.inst              21                       # number of ReadCleanReq hits
system.l2.ReadCleanReq_hits::total                 21                       # number of ReadCleanReq hits
system.l2.ReadSharedReq_hits::cpu.data          38847                       # number of ReadSharedReq hits
system.l2.ReadSharedReq_hits::total             38847                       # number of ReadSharedReq hits
system.l2.demand_hits::cpu.inst                    21                       # number of demand (read+write) hits
system.l2.demand_hits::cpu.data                 39212                       # number of demand (read+write) hits
system.l2.demand_hits::total                    39233                       # number of demand (read+write) hits
system.l2.overall_hits::cpu.inst                   21                       # number of overall hits
system.l2.overall_hits::cpu.data                39212                       # number of overall hits
system.l2.overall_hits::total                   39233                       # number of overall hits
system.l2.ReadExReq_misses::cpu.data             6723                       # number of ReadExReq misses
system.l2.ReadExReq_misses::total                6723                       # number of ReadExReq misses
system.l2.ReadCleanReq_misses::cpu.inst           734                       # number of ReadCleanReq misses
system.l2.ReadCleanReq_misses::total              734                       # number of ReadCleanReq misses
system.l2.ReadSharedReq_misses::cpu.data         1078                       # number of ReadSharedReq misses
system.l2.ReadSharedReq_misses::total            1078                       # number of ReadSharedReq misses
system.l2.demand_misses::cpu.inst                 734                       # number of demand (read+write) misses
system.l2.demand_misses::cpu.data                7801                       # number of demand (read+write) misses
system.l2.demand_misses::total                   8535                       # number of demand (read+write) misses
system.l2.overall_misses::cpu.inst                734                       # number of overall misses
system.l2.overall_misses::cpu.data               7801                       # number of overall misses
system.l2.overall_misses::total                  8535                       # number of overall misses
system.l2.ReadExReq_miss_latency::cpu.data    344007000                       # number of ReadExReq miss cycles
system.l2.ReadExReq_miss_latency::total     344007000                       # number of ReadExReq miss cycles
system.l2.ReadCleanReq_miss_latency::cpu.inst    104139500                       # number of ReadCleanReq miss cycles
system.l2.ReadCleanReq_miss_latency::total    104139500                       # number of ReadCleanReq miss cycles
system.l2.ReadSharedReq_miss_latency::cpu.data    135008500                       # number of ReadSharedReq miss cycles
system.l2.ReadSharedReq_miss_latency::total    135008500                       # number of ReadSharedReq miss cycles
system.l2.demand_miss_latency::cpu.inst     104139500                       # number of demand (read+write) miss cycles
system.l2.demand_miss_latency::cpu.data     479015500                       # number of demand (read+write) miss cycles
system.l2.demand_miss_latency::total        583155000                       # number of demand (read+write) miss cycles
system.l2.overall_miss_latency::cpu.inst    104139500                       # number of overall miss cycles
system.l2.overall_miss_latency::cpu.data    479015500                       # number of overall miss cycles
system.l2.overall_miss_latency::total       583155000                       # number of overall miss cycles
system.l2.WritebackDirty_accesses::writebacks        45379                       # number of WritebackDirty accesses(hits+misses)
system.l2.WritebackDirty_accesses::total        45379                       # number of WritebackDirty accesses(hits+misses)
system.l2.WritebackClean_accesses::writebacks          305                       # number of WritebackClean accesses(hits+misses)
system.l2.WritebackClean_accesses::total          305                       # number of WritebackClean accesses(hits+misses)
system.l2.ReadExReq_accesses::cpu.data           7088                       # number of ReadExReq accesses(hits+misses)
system.l2.ReadExReq_accesses::total              7088                       # number of ReadExReq accesses(hits+misses)
system.l2.ReadCleanReq_accesses::cpu.inst          755                       # number of ReadCleanReq accesses(hits+misses)
system.l2.ReadCleanReq_accesses::total            755                       # number of ReadCleanReq accesses(hits+misses)
system.l2.ReadSharedReq_accesses::cpu.data        39925                       # number of ReadSharedReq accesses(hits+misses)
system.l2.ReadSharedReq_accesses::total         39925                       # number of ReadSharedReq accesses(hits+misses)
system.l2.demand_accesses::cpu.inst               755                       # number of demand (read+write) accesses
system.l2.demand_accesses::cpu.data             47013                       # number of demand (read+write) accesses
system.l2.demand_accesses::total                47768                       # number of demand (read+write) accesses
system.l2.overall_accesses::cpu.inst              755                       # number of overall (read+write) accesses
system.l2.overall_accesses::cpu.data            47013                       # number of overall (read+write) accesses
system.l2.overall_accesses::total               47768                       # number of overall (read+write) accesses
system.l2.ReadExReq_miss_rate::cpu.data      0.948505                       # miss rate for ReadExReq accesses
system.l2.ReadExReq_miss_rate::total         0.948505                       # miss rate for ReadExReq accesses
system.l2.ReadCleanReq_miss_rate::cpu.inst     0.972185                       # miss rate for ReadCleanReq accesses
system.l2.ReadCleanReq_miss_rate::total      0.972185                       # miss rate for ReadCleanReq accesses
system.l2.ReadSharedReq_miss_rate::cpu.data     0.027001                       # miss rate for ReadSharedReq accesses
system.l2.ReadSharedReq_miss_rate::total     0.027001                       # miss rate for ReadSharedReq accesses
system.l2.demand_miss_rate::cpu.inst         0.972185                       # miss rate for demand accesses
system.l2.demand_miss_rate::cpu.data         0.165933                       # miss rate for demand accesses
system.l2.demand_miss_rate::total            0.178676                       # miss rate for demand accesses
system.l2.overall_miss_rate::cpu.inst        0.972185                       # miss rate for overall accesses
system.l2.overall_miss_rate::cpu.data        0.165933                       # miss rate for overall accesses
system.l2.overall_miss_rate::total           0.178676                       # miss rate for overall accesses
system.l2.ReadExReq_avg_miss_latency::cpu.data 51168.674699                       # average ReadExReq miss latency
system.l2.ReadExReq_avg_miss_latency::total 51168.674699                       # average ReadExReq miss latency
system.l2.ReadCleanReq_avg_miss_latency::cpu.inst 141879.427793                       # average ReadCleanReq miss latency
system.l2.ReadCleanReq_avg_miss_latency::total 141879.427793                       # average ReadCleanReq miss latency
system.l2.ReadSharedReq_avg_miss_latency::cpu.data 125239.795918                       # average ReadSharedReq miss latency
system.l2.ReadSharedReq_avg_miss_latency::total 125239.795918                       # average ReadSharedReq miss latency
system.l2.demand_avg_miss_latency::cpu.inst 141879.427793                       # average overall miss latency
system.l2.demand_avg_miss_latency::cpu.data 61404.371234                       # average overall miss latency
system.l2.demand_avg_miss_latency::total 68325.131810                       # average overall miss latency
system.l2.overall_avg_miss_latency::cpu.inst 141879.427793                       # average overall miss latency
system.l2.overall_avg_miss_latency::cpu.data 61404.371234                       # average overall miss latency
system.l2.overall_avg_miss_latency::total 68325.131810                       # average overall miss latency
system.l2.blocked_cycles::no_mshrs                  0                       # number of cycles access was blocked
system.l2.blocked_cycles::no_targets                0                       # number of cycles access was blocked
system.l2.blocked::no_mshrs                         0                       # number of cycles access was blocked
system.l2.blocked::no_targets                       0                       # number of cycles access was blocked
system.l2.avg_blocked_cycles::no_mshrs            nan                       # average number of cycles each access was blocked
system.l2.avg_blocked_cycles::no_targets          nan                       # average number of cycles each access was blocked
system.l2.writebacks::writebacks                  163                       # number of writebacks
system.l2.writebacks::total                       163                       # number of writebacks
system.l2.ReadExReq_mshr_misses::cpu.data         6723                       # number of ReadExReq MSHR misses
system.l2.ReadExReq_mshr_misses::total           6723                       # number of ReadExReq MSHR misses
system.l2.ReadCleanReq_mshr_misses::cpu.inst          734                       # number of ReadCleanReq MSHR misses
system.l2.ReadCleanReq_mshr_misses::total          734                       # number of ReadCleanReq MSHR misses
system.l2.ReadSharedReq_mshr_misses::cpu.data         1078                       # number of ReadSharedReq MSHR misses
system.l2.ReadSharedReq_mshr_misses::total         1078                       # number of ReadSharedReq MSHR misses
system.l2.demand_mshr_misses::cpu.inst            734                       # number of demand (read+write) MSHR misses
system.l2.demand_mshr_misses::cpu.data           7801                       # number of demand (read+write) MSHR misses
system.l2.demand_mshr_misses::total              8535                       # number of demand (read+write) MSHR misses
system.l2.overall_mshr_misses::cpu.inst           734                       # number of overall MSHR misses
system.l2.overall_mshr_misses::cpu.data          7801                       # number of overall MSHR misses
system.l2.overall_mshr_misses::total             8535                       # number of overall MSHR misses
system.l2.ReadExReq_mshr_miss_latency::cpu.data    303669000                       # number of ReadExReq MSHR miss cycles
system.l2.ReadExReq_mshr_miss_latency::total    303669000                       # number of ReadExReq MSHR miss cycles
system.l2.ReadCleanReq_mshr_miss_latency::cpu.inst     99735500                       # number of ReadCleanReq MSHR miss cycles
system.l2.ReadCleanReq_mshr_miss_latency::total     99735500                       # number of ReadCleanReq MSHR miss cycles
system.l2.ReadSharedReq_mshr_miss_latency::cpu.data    128540500                       # number of ReadSharedReq MSHR miss cycles
system.l2.ReadSharedReq_mshr_miss_latency::total    128540500                       # number of ReadSharedReq MSHR miss cycles
system.l2.demand_mshr_miss_latency::cpu.inst     99735500                       # number of demand (read+write) MSHR miss cycles
system.l2.demand_mshr_miss_latency::cpu.data    432209500                       # number of demand (read+write) MSHR miss cycles
system.l2.demand_mshr_miss_latency::total    531945000                       # number of demand (read+write) MSHR miss cycles
system.l2.overall_mshr_miss_latency::cpu.inst     99735500                       # number of overall MSHR miss cycles
system.l2.overall_mshr_miss_latency::cpu.data    432209500                       # number of overall MSHR miss cycles
system.l2.overall_mshr_miss_latency::total    531945000                       # number of overall MSHR miss cycles
system.l2.ReadExReq_mshr_miss_rate::cpu.data     0.948505                       # mshr miss rate for ReadExReq accesses
system.l2.ReadExReq_mshr_miss_rate::total     0.948505                       # mshr miss rate for ReadExReq accesses
system.l2.ReadCleanReq_mshr_miss_rate::cpu.inst     0.972185                       # mshr miss rate for ReadCleanReq accesses
system.l2.ReadCleanReq_mshr_miss_rate::total     0.972185                       # mshr miss rate for ReadCleanReq accesses
system.l2.ReadSharedReq_mshr_miss_rate::cpu.data     0.027001                       # mshr miss rate for ReadSharedReq accesses
system.l2.ReadSharedReq_mshr_miss_rate::total     0.027001                       # mshr miss rate for ReadSharedReq accesses
system.l2.demand_mshr_miss_rate::cpu.inst     0.972185                       # mshr miss rate for demand accesses
system.l2.demand_mshr_miss_rate::cpu.data     0.165933                       # mshr miss rate for demand accesses
system.l2.demand_mshr_miss_rate::total       0.178676                       # mshr miss rate for demand accesses
system.l2.overall_mshr_miss_rate::cpu.inst     0.972185                       # mshr miss rate for overall accesses
system.l2.overall_mshr_miss_rate::cpu.data     0.165933                       # mshr miss rate for overall accesses
system.l2.overall_mshr_miss_rate::total      0.178676                       # mshr miss rate for overall accesses
system.l2.ReadExReq_avg_mshr_miss_latency::cpu.data 45168.674699                       # average ReadExReq mshr miss latency
system.l2.ReadExReq_avg_mshr_miss_latency::total 45168.674699                       # average ReadExReq mshr miss latency
system.l2.ReadCleanReq_avg_mshr_miss_latency::cpu.inst 135879.427793                       # average ReadCleanReq mshr miss latency
system.l2.ReadCleanReq_avg_mshr_miss_latency::total 135879.427793                       # average ReadCleanReq mshr miss latency
system.l2.ReadSharedReq_avg_mshr_miss_latency::cpu.data 119239.795918                       # average ReadSharedReq mshr miss latency
system.l2.ReadSharedReq_avg_mshr_miss_latency::total 119239.795918                       # average ReadSharedReq mshr miss latency
system.l2.demand_avg_mshr_miss_latency::cpu.inst 135879.427793                       # average overall mshr miss latency
system.l2.demand_avg_mshr_miss_latency::cpu.data 55404.371234                       # average overall mshr miss latency
system.l2.demand_avg_mshr_miss_latency::total 62325.131810                       # average overall mshr miss latency
system.l2.overall_avg_mshr_miss_latency::cpu.inst 135879.427793                       # average overall mshr miss latency
system.l2.overall_avg_mshr_miss_latency::cpu.data 55404.371234                       # average overall mshr miss latency
system.l2.overall_avg_mshr_miss_latency::total 62325.131810                       # average overall mshr miss latency
system.l2.replacements                            685                       # number of replacements
system.l3.tags.pwrStateResidencyTicks::UNDEFINED  87161231000                       # Cumulative time (in ticks) in various power states
system.l3.tags.tagsinuse                  7963.483797                       # Cycle average of tags in use
system.l3.tags.total_refs                        8995                       # Total number of references to valid blocks.
system.l3.tags.sampled_refs                      8513                       # Sample count of references to valid blocks.
system.l3.tags.avg_refs                      1.056619                       # Average number of references to valid blocks.
system.l3.tags.warmup_cycle                    418000                       # Cycle when the warmup percentage was hit.
system.l3.tags.occ_blocks::cpu.inst        674.153111                       # Average occupied blocks per requestor
system.l3.tags.occ_blocks::cpu.data       7289.330687                       # Average occupied blocks per requestor
system.l3.tags.occ_percent::cpu.inst         0.020574                       # Average percentage of cache occupancy
system.l3.tags.occ_percent::cpu.data         0.222453                       # Average percentage of cache occupancy
system.l3.tags.occ_percent::total            0.243026                       # Average percentage of cache occupancy
system.l3.tags.occ_task_id_blocks::1024          8513                       # Occupied blocks per task id
system.l3.tags.age_task_id_blocks_1024::0           64                       # Occupied blocks per task id
system.l3.tags.age_task_id_blocks_1024::3            2                       # Occupied blocks per task id
system.l3.tags.age_task_id_blocks_1024::4         8447                       # Occupied blocks per task id
system.l3.tags.occ_task_id_percent::1024     0.259796                       # Percentage of cache occupancy per task id
system.l3.tags.tag_accesses                 294756673                       # Number of tag accesses
system.l3.tags.data_accesses                294756673                       # Number of data accesses
system.l3.pwrStateResidencyTicks::UNDEFINED  87161231000                       # Cumulative time (in ticks) in various power states
system.l3.WritebackDirty_hits::writebacks          163                       # number of WritebackDirty hits
system.l3.WritebackDirty_hits::total              163                       # number of WritebackDirty hits
system.l3.ReadExReq_hits::cpu.data                 15                       # number of ReadExReq hits
system.l3.ReadExReq_hits::total                    15                       # number of ReadExReq hits
system.l3.ReadSharedReq_hits::cpu.data              7                       # number of ReadSharedReq hits
system.l3.ReadSharedReq_hits::total                 7                       # number of ReadSharedReq hits
system.l3.demand_hits::cpu.data                    22                       # number of demand (read+write) hits
system.l3.demand_hits::total                       22                       # number of demand (read+write) hits
system.l3.overall_hits::cpu.data                   22                       # number of overall hits
system.l3.overall_hits::total                      22                       # number of overall hits
system.l3.ReadExReq_misses::cpu.data             6708                       # number of ReadExReq misses
system.l3.ReadExReq_misses::total                6708                       # number of ReadExReq misses
system.l3.ReadSharedReq_misses::cpu.inst          734                       # number of ReadSharedReq misses
system.l3.ReadSharedReq_misses::cpu.data         1071                       # number of ReadSharedReq misses
system.l3.ReadSharedReq_misses::total            1805                       # number of ReadSharedReq misses
system.l3.demand_misses::cpu.inst                 734                       # number of demand (read+write) misses
system.l3.demand_misses::cpu.data                7779                       # number of demand (read+write) misses
system.l3.demand_misses::total                   8513                       # number of demand (read+write) misses
system.l3.overall_misses::cpu.inst                734                       # number of overall misses
system.l3.overall_misses::cpu.data               7779                       # number of overall misses
system.l3.overall_misses::total                  8513                       # number of overall misses
system.l3.ReadExReq_miss_latency::cpu.data    256375500                       # number of ReadExReq miss cycles
system.l3.ReadExReq_miss_latency::total     256375500                       # number of ReadExReq miss cycles
system.l3.ReadSharedReq_miss_latency::cpu.inst     94597500                       # number of ReadSharedReq miss cycles
system.l3.ReadSharedReq_miss_latency::cpu.data    120886000                       # number of ReadSharedReq miss cycles
system.l3.ReadSharedReq_miss_latency::total    215483500                       # number of ReadSharedReq miss cycles
system.l3.demand_miss_latency::cpu.inst      94597500                       # number of demand (read+write) miss cycles
system.l3.demand_miss_latency::cpu.data     377261500                       # number of demand (read+write) miss cycles
system.l3.demand_miss_latency::total        471859000                       # number of demand (read+write) miss cycles
system.l3.overall_miss_latency::cpu.inst     94597500                       # number of overall miss cycles
system.l3.overall_miss_latency::cpu.data    377261500                       # number of overall miss cycles
system.l3.overall_miss_latency::total       471859000                       # number of overall miss cycles
system.l3.WritebackDirty_accesses::writebacks          163                       # number of WritebackDirty accesses(hits+misses)
system.l3.WritebackDirty_accesses::total          163                       # number of WritebackDirty accesses(hits+misses)
system.l3.ReadExReq_accesses::cpu.data           6723                       # number of ReadExReq accesses(hits+misses)
system.l3.ReadExReq_accesses::total              6723                       # number of ReadExReq accesses(hits+misses)
system.l3.ReadSharedReq_accesses::cpu.inst          734                       # number of ReadSharedReq accesses(hits+misses)
system.l3.ReadSharedReq_accesses::cpu.data         1078                       # number of ReadSharedReq accesses(hits+misses)
system.l3.ReadSharedReq_accesses::total          1812                       # number of ReadSharedReq accesses(hits+misses)
system.l3.demand_accesses::cpu.inst               734                       # number of demand (read+write) accesses
system.l3.demand_accesses::cpu.data              7801                       # number of demand (read+write) accesses
system.l3.demand_accesses::total                 8535                       # number of demand (read+write) accesses
system.l3.overall_accesses::cpu.inst              734                       # number of overall (read+write) accesses
system.l3.overall_accesses::cpu.data             7801                       # number of overall (read+write) accesses
system.l3.overall_accesses::total                8535                       # number of overall (read+write) accesses
system.l3.ReadExReq_miss_rate::cpu.data      0.997769                       # miss rate for ReadExReq accesses
system.l3.ReadExReq_miss_rate::total         0.997769                       # miss rate for ReadExReq accesses
system.l3.ReadSharedReq_miss_rate::cpu.inst            1                       # miss rate for ReadSharedReq accesses
system.l3.ReadSharedReq_miss_rate::cpu.data     0.993506                       # miss rate for ReadSharedReq accesses
system.l3.ReadSharedReq_miss_rate::total     0.996137                       # miss rate for ReadSharedReq accesses
system.l3.demand_miss_rate::cpu.inst                1                       # miss rate for demand accesses
system.l3.demand_miss_rate::cpu.data         0.997180                       # miss rate for demand accesses
system.l3.demand_miss_rate::total            0.997422                       # miss rate for demand accesses
system.l3.overall_miss_rate::cpu.inst               1                       # miss rate for overall accesses
system.l3.overall_miss_rate::cpu.data        0.997180                       # miss rate for overall accesses
system.l3.overall_miss_rate::total           0.997422                       # miss rate for overall accesses
system.l3.ReadExReq_avg_miss_latency::cpu.data 38219.364937                       # average ReadExReq miss latency
system.l3.ReadExReq_avg_miss_latency::total 38219.364937                       # average ReadExReq miss latency
system.l3.ReadSharedReq_avg_miss_latency::cpu.inst 128879.427793                       # average ReadSharedReq miss latency
system.l3.ReadSharedReq_avg_miss_latency::cpu.data 112872.082166                       # average ReadSharedReq miss latency
system.l3.ReadSharedReq_avg_miss_latency::total 119381.440443                       # average ReadSharedReq miss latency
system.l3.demand_avg_miss_latency::cpu.inst 128879.427793                       # average overall miss latency
system.l3.demand_avg_miss_latency::cpu.data 48497.428975                       # average overall miss latency
system.l3.demand_avg_miss_latency::total 55428.051216                       # average overall miss latency
system.l3.overall_avg_miss_latency::cpu.inst 128879.427793                       # average overall miss latency
system.l3.overall_avg_miss_latency::cpu.data 48497.428975                       # average overall miss latency
system.l3.overall_avg_miss_latency::total 55428.051216                       # average overall miss latency
system.l3.blocked_cycles::no_mshrs                  0                       # number of cycles access was blocked
system.l3.blocked_cycles::no_targets                0                       # number of cycles access was blocked
system.l3.blocked::no_mshrs                         0                       # number of cycles access was blocked
system.l3.blocked::no_targets                       0                       # number of cycles access was blocked
system.l3.avg_blocked_cycles::no_mshrs            nan                       # average number of cycles each access was blocked
system.l3.avg_blocked_cycles::no_targets          nan                       # average number of cycles each access was blocked
system.l3.ReadExReq_mshr_misses::cpu.data         6708                       # number of ReadExReq MSHR misses
system.l3.ReadExReq_mshr_misses::total           6708                       # number of ReadExReq MSHR misses
system.l3.ReadSharedReq_mshr_misses::cpu.inst          734                       # number of ReadSharedReq MSHR misses
system.l3.ReadSharedReq_mshr_misses::cpu.data         1071                       # number of ReadSharedReq MSHR misses
system.l3.ReadSharedReq_mshr_misses::total         1805                       # number of ReadSharedReq MSHR misses
system.l3.demand_mshr_misses::cpu.inst            734                       # number of demand (read+write) MSHR misses
system.l3.demand_mshr_misses::cpu.data           7779                       # number of demand (read+write) MSHR misses
system.l3.demand_mshr_misses::total              8513                       # number of demand (read+write) MSHR misses
system.l3.overall_mshr_misses::cpu.inst           734                       # number of overall MSHR misses
system.l3.overall_mshr_misses::cpu.data          7779                       # number of overall MSHR misses
system.l3.overall_mshr_misses::total             8513                       # number of overall MSHR misses
system.l3.ReadExReq_mshr_miss_latency::cpu.data    155755500                       # number of ReadExReq MSHR miss cycles
system.l3.ReadExReq_mshr_miss_latency::total    155755500                       # number of ReadExReq MSHR miss cycles
system.l3.ReadSharedReq_mshr_miss_latency::cpu.inst     83587500                       # number of ReadSharedReq MSHR miss cycles
system.l3.ReadSharedReq_mshr_miss_latency::cpu.data    104821000                       # number of ReadSharedReq MSHR miss cycles
system.l3.ReadSharedReq_mshr_miss_latency::total    188408500                       # number of ReadSharedReq MSHR miss cycles
system.l3.demand_mshr_miss_latency::cpu.inst     83587500                       # number of demand (read+write) MSHR miss cycles
system.l3.demand_mshr_miss_latency::cpu.data    260576500                       # number of demand (read+write) MSHR miss cycles
system.l3.demand_mshr_miss_latency::total    344164000                       # number of demand (read+write) MSHR miss cycles
system.l3.overall_mshr_miss_latency::cpu.inst     83587500                       # number of overall MSHR miss cycles
system.l3.overall_mshr_miss_latency::cpu.data    260576500                       # number of overall MSHR miss cycles
system.l3.overall_mshr_miss_latency::total    344164000                       # number of overall MSHR miss cycles
system.l3.ReadExReq_mshr_miss_rate::cpu.data     0.997769                       # mshr miss rate for ReadExReq accesses
system.l3.ReadExReq_mshr_miss_rate::total     0.997769                       # mshr miss rate for ReadExReq accesses
system.l3.ReadSharedReq_mshr_miss_rate::cpu.inst            1                       # mshr miss rate for ReadSharedReq accesses
system.l3.ReadSharedReq_mshr_miss_rate::cpu.data     0.993506                       # mshr miss rate for ReadSharedReq accesses
system.l3.ReadSharedReq_mshr_miss_rate::total     0.996137                       # mshr miss rate for ReadSharedReq accesses
system.l3.demand_mshr_miss_rate::cpu.inst            1                       # mshr miss rate for demand accesses
system.l3.demand_mshr_miss_rate::cpu.data     0.997180                       # mshr miss rate for demand accesses
system.l3.demand_mshr_miss_rate::total       0.997422                       # mshr miss rate for demand accesses
system.l3.overall_mshr_miss_rate::cpu.inst            1                       # mshr miss rate for overall accesses
system.l3.overall_mshr_miss_rate::cpu.data     0.997180                       # mshr miss rate for overall accesses
system.l3.overall_mshr_miss_rate::total      0.997422                       # mshr miss rate for overall accesses
system.l3.ReadExReq_avg_mshr_miss_latency::cpu.data 23219.364937                       # average ReadExReq mshr miss latency
system.l3.ReadExReq_avg_mshr_miss_latency::total 23219.364937                       # average ReadExReq mshr miss latency
system.l3.ReadSharedReq_avg_mshr_miss_latency::cpu.inst 113879.427793                       # average ReadSharedReq mshr miss latency
system.l3.ReadSharedReq_avg_mshr_miss_latency::cpu.data 97872.082166                       # average ReadSharedReq mshr miss latency
system.l3.ReadSharedReq_avg_mshr_miss_latency::total 104381.440443                       # average ReadSharedReq mshr miss latency
system.l3.demand_avg_mshr_miss_latency::cpu.inst 113879.427793                       # average overall mshr miss latency
system.l3.demand_avg_mshr_miss_latency::cpu.data 33497.428975                       # average overall mshr miss latency
system.l3.demand_avg_mshr_miss_latency::total 40428.051216                       # average overall mshr miss latency
system.l3.overall_avg_mshr_miss_latency::cpu.inst 113879.427793                       # average overall mshr miss latency
system.l3.overall_avg_mshr_miss_latency::cpu.data 33497.428975                       # average overall mshr miss latency
system.l3.overall_avg_mshr_miss_latency::total 40428.051216                       # average overall mshr miss latency
system.l3.replacements                              0                       # number of replacements
system.membus.snoop_filter.tot_requests          8513                       # Total number of requests made to the snoop filter.
system.membus.snoop_filter.hit_single_requests            0                       # Number of requests hitting in the snoop filter with a single holder of the requested data.
system.membus.snoop_filter.hit_multi_requests            0                       # Number of requests hitting in the snoop filter with multiple (>1) holders of the requested data.
system.membus.snoop_filter.tot_snoops               0                       # Total number of snoops made to the snoop filter.
system.membus.snoop_filter.hit_single_snoops            0                       # Number of snoops hitting in the snoop filter with a single holder of the requested data.
system.membus.snoop_filter.hit_multi_snoops            0                       # Number of snoops hitting in the snoop filter with multiple (>1) holders of the requested data.
system.membus.pwrStateResidencyTicks::UNDEFINED  87161231000                       # Cumulative time (in ticks) in various power states
system.membus.trans_dist::ReadResp               1805                       # Transaction distribution
system.membus.trans_dist::ReadExReq              6708                       # Transaction distribution
system.membus.trans_dist::ReadExResp             6708                       # Transaction distribution
system.membus.trans_dist::ReadSharedReq          1805                       # Transaction distribution
system.membus.pkt_count_system.l3.mem_side::system.mem_ctrls.port        17026                       # Packet count per connected master and slave (bytes)
system.membus.pkt_count_system.l3.mem_side::total        17026                       # Packet count per connected master and slave (bytes)
system.membus.pkt_count::total                  17026                       # Packet count per connected master and slave (bytes)
system.membus.pkt_size_system.l3.mem_side::system.mem_ctrls.port       544832                       # Cumulative packet size per connected master and slave (bytes)
system.membus.pkt_size_system.l3.mem_side::total       544832                       # Cumulative packet size per connected master and slave (bytes)
system.membus.pkt_size::total                  544832                       # Cumulative packet size per connected master and slave (bytes)
system.membus.snoops                                0                       # Total snoops (count)
system.membus.snoopTraffic                          0                       # Total snoop traffic (bytes)
system.membus.snoop_fanout::samples              8513                       # Request fanout histogram
system.membus.snoop_fanout::mean                    0                       # Request fanout histogram
system.membus.snoop_fanout::stdev                   0                       # Request fanout histogram
system.membus.snoop_fanout::underflows              0      0.00%      0.00% # Request fanout histogram
system.membus.snoop_fanout::0                    8513    100.00%    100.00% # Request fanout histogram
system.membus.snoop_fanout::1                       0      0.00%    100.00% # Request fanout histogram
system.membus.snoop_fanout::overflows               0      0.00%    100.00% # Request fanout histogram
system.membus.snoop_fanout::min_value               0                       # Request fanout histogram
system.membus.snoop_fanout::max_value               0                       # Request fanout histogram
system.membus.snoop_fanout::total                8513                       # Request fanout histogram
system.membus.reqLayer2.occupancy             8527000                       # Layer occupancy (ticks)
system.membus.reqLayer2.utilization               0.0                       # Layer utilization (%)
system.membus.respLayer1.occupancy           42579000                       # Layer occupancy (ticks)
system.membus.respLayer1.utilization              0.0                       # Layer utilization (%)
system.tol2bus.snoop_filter.tot_requests        94574                       # Total number of requests made to the snoop filter.
system.tol2bus.snoop_filter.hit_single_requests        46806                       # Number of requests hitting in the snoop filter with a single holder of the requested data.
system.tol2bus.snoop_filter.hit_multi_requests            1                       # Number of requests hitting in the snoop filter with multiple (>1) holders of the requested data.
system.tol2bus.snoop_filter.tot_snoops            225                       # Total number of snoops made to the snoop filter.
system.tol2bus.snoop_filter.hit_single_snoops          225                       # Number of snoops hitting in the snoop filter with a single holder of the requested data.
system.tol2bus.snoop_filter.hit_multi_snoops            0                       # Number of snoops hitting in the snoop filter with multiple (>1) holders of the requested data.
system.tol2bus.pwrStateResidencyTicks::UNDEFINED  87161231000                       # Cumulative time (in ticks) in various power states
system.tol2bus.trans_dist::ReadResp             40680                       # Transaction distribution
system.tol2bus.trans_dist::WritebackDirty        45542                       # Transaction distribution
system.tol2bus.trans_dist::WritebackClean          305                       # Transaction distribution
system.tol2bus.trans_dist::CleanEvict            1644                       # Transaction distribution
system.tol2bus.trans_dist::ReadExReq             7088                       # Transaction distribution
system.tol2bus.trans_dist::ReadExResp            7088                       # Transaction distribution
system.tol2bus.trans_dist::ReadCleanReq           755                       # Transaction distribution
system.tol2bus.trans_dist::ReadSharedReq        39925                       # Transaction distribution
system.tol2bus.pkt_count_system.cpu.icache.mem_side::system.l2.cpu_side         1815                       # Packet count per connected master and slave (bytes)
system.tol2bus.pkt_count_system.cpu.dcache.mem_side::system.l2.cpu_side       140527                       # Packet count per connected master and slave (bytes)
system.tol2bus.pkt_count::total                142342                       # Packet count per connected master and slave (bytes)
system.tol2bus.pkt_size_system.cpu.icache.mem_side::system.l2.cpu_side        67840                       # Cumulative packet size per connected master and slave (bytes)
system.tol2bus.pkt_size_system.cpu.dcache.mem_side::system.l2.cpu_side      5913088                       # Cumulative packet size per connected master and slave (bytes)
system.tol2bus.pkt_size::total                5980928                       # Cumulative packet size per connected master and slave (bytes)
system.tol2bus.snoops                             685                       # Total snoops (count)
system.tol2bus.snoopTraffic                     10432                       # Total snoop traffic (bytes)
system.tol2bus.snoop_fanout::samples            48453                       # Request fanout histogram
system.tol2bus.snoop_fanout::mean            0.004664                       # Request fanout histogram
system.tol2bus.snoop_fanout::stdev           0.068137                       # Request fanout histogram
system.tol2bus.snoop_fanout::underflows             0      0.00%      0.00% # Request fanout histogram
system.tol2bus.snoop_fanout::0                  48227     99.53%     99.53% # Request fanout histogram
system.tol2bus.snoop_fanout::1                    226      0.47%    100.00% # Request fanout histogram
system.tol2bus.snoop_fanout::2                      0      0.00%    100.00% # Request fanout histogram
system.tol2bus.snoop_fanout::3                      0      0.00%    100.00% # Request fanout histogram
system.tol2bus.snoop_fanout::4                      0      0.00%    100.00% # Request fanout histogram
system.tol2bus.snoop_fanout::overflows              0      0.00%    100.00% # Request fanout histogram
system.tol2bus.snoop_fanout::min_value              0                       # Request fanout histogram
system.tol2bus.snoop_fanout::max_value              1                       # Request fanout histogram
system.tol2bus.snoop_fanout::total              48453                       # Request fanout histogram
system.tol2bus.reqLayer0.occupancy           92971000                       # Layer occupancy (ticks)
system.tol2bus.reqLayer0.utilization              0.1                       # Layer utilization (%)
system.tol2bus.respLayer0.occupancy           1132500                       # Layer occupancy (ticks)
system.tol2bus.respLayer0.utilization             0.0                       # Layer utilization (%)
system.tol2bus.respLayer1.occupancy          70519500                       # Layer occupancy (ticks)
system.tol2bus.respLayer1.utilization             0.1                       # Layer utilization (%)
system.tol3bus.snoop_filter.tot_requests         8995                       # Total number of requests made to the snoop filter.
system.tol3bus.snoop_filter.hit_single_requests          460                       # Number of requests hitting in the snoop filter with a single holder of the requested data.
system.tol3bus.snoop_filter.hit_multi_requests            0                       # Number of requests hitting in the snoop filter with multiple (>1) holders of the requested data.
system.tol3bus.snoop_filter.tot_snoops              0                       # Total number of snoops made to the snoop filter.
system.tol3bus.snoop_filter.hit_single_snoops            0                       # Number of snoops hitting in the snoop filter with a single holder of the requested data.
system.tol3bus.snoop_filter.hit_multi_snoops            0                       # Number of snoops hitting in the snoop filter with multiple (>1) holders of the requested data.
system.tol3bus.pwrStateResidencyTicks::UNDEFINED  87161231000                       # Cumulative time (in ticks) in various power states
system.tol3bus.trans_dist::ReadResp              1812                       # Transaction distribution
system.tol3bus.trans_dist::WritebackDirty          163                       # Transaction distribution
system.tol3bus.trans_dist::CleanEvict             297                       # Transaction distribution
system.tol3bus.trans_dist::ReadExReq             6723                       # Transaction distribution
system.tol3bus.trans_dist::ReadExResp            6723                       # Transaction distribution
system.tol3bus.trans_dist::ReadSharedReq         1812                       # Transaction distribution
system.tol3bus.pkt_count_system.l2.mem_side::system.l3.cpu_side        17530                       # Packet count per connected master and slave (bytes)
system.tol3bus.pkt_size_system.l2.mem_side::system.l3.cpu_side       556672                       # Cumulative packet size per connected master and slave (bytes)
system.tol3bus.snoops                               0                       # Total snoops (count)
system.tol3bus.snoopTraffic                         0                       # Total snoop traffic (bytes)
system.tol3bus.snoop_fanout::samples             8535                       # Request fanout histogram
system.tol3bus.snoop_fanout::mean                   0                       # Request fanout histogram
system.tol3bus.snoop_fanout::stdev                  0                       # Request fanout histogram
system.tol3bus.snoop_fanout::underflows             0      0.00%      0.00% # Request fanout histogram
system.tol3bus.snoop_fanout::0                   8535    100.00%    100.00% # Request fanout histogram
system.tol3bus.snoop_fanout::1                      0      0.00%    100.00% # Request fanout histogram
system.tol3bus.snoop_fanout::overflows              0      0.00%    100.00% # Request fanout histogram
system.tol3bus.snoop_fanout::min_value              0                       # Request fanout histogram
system.tol3bus.snoop_fanout::max_value              0                       # Request fanout histogram
system.tol3bus.snoop_fanout::total               8535                       # Request fanout histogram
system.tol3bus.reqLayer0.occupancy            4660500                       # Layer occupancy (ticks)
system.tol3bus.reqLayer0.utilization              0.0                       # Layer utilization (%)
system.tol3bus.respLayer0.occupancy          12802500                       # Layer occupancy (ticks)
system.tol3bus.respLayer0.utilization             0.0                       # Layer utilization (%)

---------- End Simulation Statistics   ----------
